<routes>
            <vType accel="1.0" decel="4.5" id="standard_car" length="5.0" minGap="2.5" maxSpeed="25" sigma="0.5" />

            


            <route id="r_0" edges="E4"/>

            <route id="r_1" edges="E4 -E3"/>

            <route id="r_2" edges="E4 -E5"/>

            <route id="r_3" edges="E3 -E5"/>

            <route id="r_4" edges="E3 -E4"/>

            <route id="r_5"  edges="E5 -E4"/>

            <route id="r_6" edges="E5 -E3"/>
    <vehicle id="r_3_0" type="standard_car" route="r_3" depart="42.0" departLane="random" departSpeed="10" />
    <vehicle id="r_1_1" type="standard_car" route="r_1" depart="67.0" departLane="random" departSpeed="10" />
    <vehicle id="r_0_2" type="standard_car" route="r_0" depart="94.0" departLane="random" departSpeed="10" />
    <vehicle id="r_3_3" type="standard_car" route="r_3" depart="112.0" departLane="random" departSpeed="10" />
    <vehicle id="r_3_4" type="standard_car" route="r_3" depart="123.0" departLane="random" departSpeed="10" />
    <vehicle id="r_3_5" type="standard_car" route="r_3" depart="129.0" departLane="random" departSpeed="10" />
    <vehicle id="r_2_6" type="standard_car" route="r_2" depart="160.0" departLane="random" departSpeed="10" />
    <vehicle id="r_1_7" type="standard_car" route="r_1" depart="193.0" departLane="random" departSpeed="10" />
    <vehicle id="r_0_8" type="standard_car" route="r_0" depart="195.0" departLane="random" departSpeed="10" />
    <vehicle id="r_4_9" type="standard_car" route="r_4" depart="198.0" departLane="random" departSpeed="10" />
    <vehicle id="r_0_10" type="standard_car" route="r_0" depart="199.0" departLane="random" departSpeed="10" />
    <vehicle id="r_5_11" type="standard_car" route="r_5" depart="208.0" departLane="random" departSpeed="10" />
    <vehicle id="r_4_12" type="standard_car" route="r_4" depart="226.0" departLane="random" departSpeed="10" />
    <vehicle id="r_0_13" type="standard_car" route="r_0" depart="231.0" departLane="random" departSpeed="10" />
    <vehicle id="r_3_14" type="standard_car" route="r_3" depart="232.0" departLane="random" departSpeed="10" />
    <vehicle id="r_3_15" type="standard_car" route="r_3" depart="235.0" departLane="random" departSpeed="10" />
    <vehicle id="r_3_16" type="standard_car" route="r_3" depart="246.0" departLane="random" departSpeed="10" />
    <vehicle id="r_1_17" type="standard_car" route="r_1" depart="248.0" departLane="random" departSpeed="10" />
    <vehicle id="r_1_18" type="standard_car" route="r_1" depart="250.0" departLane="random" departSpeed="10" />
    <vehicle id="r_3_19" type="standard_car" route="r_3" depart="251.0" departLane="random" departSpeed="10" />
    <vehicle id="r_0_20" type="standard_car" route="r_0" depart="257.0" departLane="random" departSpeed="10" />
    <vehicle id="r_3_21" type="standard_car" route="r_3" depart="257.0" departLane="random" departSpeed="10" />
    <vehicle id="r_5_22" type="standard_car" route="r_5" depart="260.0" departLane="random" departSpeed="10" />
    <vehicle id="r_4_23" type="standard_car" route="r_4" depart="282.0" departLane="random" departSpeed="10" />
    <vehicle id="r_3_24" type="standard_car" route="r_3" depart="285.0" departLane="random" departSpeed="10" />
    <vehicle id="r_1_25" type="standard_car" route="r_1" depart="290.0" departLane="random" departSpeed="10" />
    <vehicle id="r_1_26" type="standard_car" route="r_1" depart="309.0" departLane="random" departSpeed="10" />
    <vehicle id="r_1_27" type="standard_car" route="r_1" depart="310.0" departLane="random" departSpeed="10" />
    <vehicle id="r_1_28" type="standard_car" route="r_1" depart="314.0" departLane="random" departSpeed="10" />
    <vehicle id="r_3_29" type="standard_car" route="r_3" depart="315.0" departLane="random" departSpeed="10" />
    <vehicle id="r_4_30" type="standard_car" route="r_4" depart="324.0" departLane="random" departSpeed="10" />
    <vehicle id="r_0_31" type="standard_car" route="r_0" depart="330.0" departLane="random" departSpeed="10" />
    <vehicle id="r_1_32" type="standard_car" route="r_1" depart="331.0" departLane="random" departSpeed="10" />
    <vehicle id="r_4_33" type="standard_car" route="r_4" depart="342.0" departLane="random" departSpeed="10" />
    <vehicle id="r_3_34" type="standard_car" route="r_3" depart="345.0" departLane="random" departSpeed="10" />
    <vehicle id="r_0_35" type="standard_car" route="r_0" depart="357.0" departLane="random" departSpeed="10" />
    <vehicle id="r_5_36" type="standard_car" route="r_5" depart="360.0" departLane="random" departSpeed="10" />
    <vehicle id="r_0_37" type="standard_car" route="r_0" depart="362.0" departLane="random" departSpeed="10" />
    <vehicle id="r_4_38" type="standard_car" route="r_4" depart="364.0" departLane="random" departSpeed="10" />
    <vehicle id="r_4_39" type="standard_car" route="r_4" depart="377.0" departLane="random" departSpeed="10" />
    <vehicle id="r_0_40" type="standard_car" route="r_0" depart="385.0" departLane="random" departSpeed="10" />
    <vehicle id="r_4_41" type="standard_car" route="r_4" depart="391.0" departLane="random" departSpeed="10" />
    <vehicle id="r_3_42" type="standard_car" route="r_3" depart="394.0" departLane="random" departSpeed="10" />
    <vehicle id="r_6_43" type="standard_car" route="r_6" depart="402.0" departLane="random" departSpeed="10" />
    <vehicle id="r_1_44" type="standard_car" route="r_1" depart="405.0" departLane="random" departSpeed="10" />
    <vehicle id="r_1_45" type="standard_car" route="r_1" depart="422.0" departLane="random" departSpeed="10" />
    <vehicle id="r_0_46" type="standard_car" route="r_0" depart="425.0" departLane="random" departSpeed="10" />
    <vehicle id="r_5_47" type="standard_car" route="r_5" depart="430.0" departLane="random" departSpeed="10" />
    <vehicle id="r_0_48" type="standard_car" route="r_0" depart="435.0" departLane="random" departSpeed="10" />
    <vehicle id="r_1_49" type="standard_car" route="r_1" depart="436.0" departLane="random" departSpeed="10" />
    <vehicle id="r_3_50" type="standard_car" route="r_3" depart="440.0" departLane="random" departSpeed="10" />
    <vehicle id="r_5_51" type="standard_car" route="r_5" depart="441.0" departLane="random" departSpeed="10" />
    <vehicle id="r_3_52" type="standard_car" route="r_3" depart="442.0" departLane="random" departSpeed="10" />
    <vehicle id="r_4_53" type="standard_car" route="r_4" depart="445.0" departLane="random" departSpeed="10" />
    <vehicle id="r_5_54" type="standard_car" route="r_5" depart="448.0" departLane="random" departSpeed="10" />
    <vehicle id="r_0_55" type="standard_car" route="r_0" depart="449.0" departLane="random" departSpeed="10" />
    <vehicle id="r_1_56" type="standard_car" route="r_1" depart="452.0" departLane="random" departSpeed="10" />
    <vehicle id="r_5_57" type="standard_car" route="r_5" depart="458.0" departLane="random" departSpeed="10" />
    <vehicle id="r_0_58" type="standard_car" route="r_0" depart="458.0" departLane="random" departSpeed="10" />
    <vehicle id="r_3_59" type="standard_car" route="r_3" depart="460.0" departLane="random" departSpeed="10" />
    <vehicle id="r_4_60" type="standard_car" route="r_4" depart="461.0" departLane="random" departSpeed="10" />
    <vehicle id="r_6_61" type="standard_car" route="r_6" depart="463.0" departLane="random" departSpeed="10" />
    <vehicle id="r_5_62" type="standard_car" route="r_5" depart="463.0" departLane="random" departSpeed="10" />
    <vehicle id="r_4_63" type="standard_car" route="r_4" depart="468.0" departLane="random" departSpeed="10" />
    <vehicle id="r_4_64" type="standard_car" route="r_4" depart="469.0" departLane="random" departSpeed="10" />
    <vehicle id="r_5_65" type="standard_car" route="r_5" depart="471.0" departLane="random" departSpeed="10" />
    <vehicle id="r_1_66" type="standard_car" route="r_1" depart="475.0" departLane="random" departSpeed="10" />
    <vehicle id="r_0_67" type="standard_car" route="r_0" depart="478.0" departLane="random" departSpeed="10" />
    <vehicle id="r_3_68" type="standard_car" route="r_3" depart="481.0" departLane="random" departSpeed="10" />
    <vehicle id="r_5_69" type="standard_car" route="r_5" depart="482.0" departLane="random" departSpeed="10" />
    <vehicle id="r_1_70" type="standard_car" route="r_1" depart="482.0" departLane="random" departSpeed="10" />
    <vehicle id="r_5_71" type="standard_car" route="r_5" depart="485.0" departLane="random" departSpeed="10" />
    <vehicle id="r_1_72" type="standard_car" route="r_1" depart="488.0" departLane="random" departSpeed="10" />
    <vehicle id="r_3_73" type="standard_car" route="r_3" depart="489.0" departLane="random" departSpeed="10" />
    <vehicle id="r_1_74" type="standard_car" route="r_1" depart="504.0" departLane="random" departSpeed="10" />
    <vehicle id="r_3_75" type="standard_car" route="r_3" depart="508.0" departLane="random" departSpeed="10" />
    <vehicle id="r_4_76" type="standard_car" route="r_4" depart="509.0" departLane="random" departSpeed="10" />
    <vehicle id="r_4_77" type="standard_car" route="r_4" depart="518.0" departLane="random" departSpeed="10" />
    <vehicle id="r_3_78" type="standard_car" route="r_3" depart="522.0" departLane="random" departSpeed="10" />
    <vehicle id="r_3_79" type="standard_car" route="r_3" depart="523.0" departLane="random" departSpeed="10" />
    <vehicle id="r_4_80" type="standard_car" route="r_4" depart="524.0" departLane="random" departSpeed="10" />
    <vehicle id="r_1_81" type="standard_car" route="r_1" depart="531.0" departLane="random" departSpeed="10" />
    <vehicle id="r_4_82" type="standard_car" route="r_4" depart="538.0" departLane="random" departSpeed="10" />
    <vehicle id="r_4_83" type="standard_car" route="r_4" depart="543.0" departLane="random" departSpeed="10" />
    <vehicle id="r_5_84" type="standard_car" route="r_5" depart="551.0" departLane="random" departSpeed="10" />
    <vehicle id="r_3_85" type="standard_car" route="r_3" depart="552.0" departLane="random" departSpeed="10" />
    <vehicle id="r_1_86" type="standard_car" route="r_1" depart="556.0" departLane="random" departSpeed="10" />
    <vehicle id="r_3_87" type="standard_car" route="r_3" depart="565.0" departLane="random" departSpeed="10" />
    <vehicle id="r_5_88" type="standard_car" route="r_5" depart="572.0" departLane="random" departSpeed="10" />
    <vehicle id="r_4_89" type="standard_car" route="r_4" depart="573.0" departLane="random" departSpeed="10" />
    <vehicle id="r_4_90" type="standard_car" route="r_4" depart="574.0" departLane="random" departSpeed="10" />
    <vehicle id="r_0_91" type="standard_car" route="r_0" depart="575.0" departLane="random" departSpeed="10" />
    <vehicle id="r_3_92" type="standard_car" route="r_3" depart="576.0" departLane="random" departSpeed="10" />
    <vehicle id="r_0_93" type="standard_car" route="r_0" depart="576.0" departLane="random" departSpeed="10" />
    <vehicle id="r_4_94" type="standard_car" route="r_4" depart="577.0" departLane="random" departSpeed="10" />
    <vehicle id="r_4_95" type="standard_car" route="r_4" depart="578.0" departLane="random" departSpeed="10" />
    <vehicle id="r_3_96" type="standard_car" route="r_3" depart="583.0" departLane="random" departSpeed="10" />
    <vehicle id="r_0_97" type="standard_car" route="r_0" depart="583.0" departLane="random" departSpeed="10" />
    <vehicle id="r_1_98" type="standard_car" route="r_1" depart="584.0" departLane="random" departSpeed="10" />
    <vehicle id="r_1_99" type="standard_car" route="r_1" depart="585.0" departLane="random" departSpeed="10" />
    <vehicle id="r_3_100" type="standard_car" route="r_3" depart="585.0" departLane="random" departSpeed="10" />
    <vehicle id="r_4_101" type="standard_car" route="r_4" depart="591.0" departLane="random" departSpeed="10" />
    <vehicle id="r_1_102" type="standard_car" route="r_1" depart="592.0" departLane="random" departSpeed="10" />
    <vehicle id="r_6_103" type="standard_car" route="r_6" depart="594.0" departLane="random" departSpeed="10" />
    <vehicle id="r_3_104" type="standard_car" route="r_3" depart="598.0" departLane="random" departSpeed="10" />
    <vehicle id="r_2_105" type="standard_car" route="r_2" depart="602.0" departLane="random" departSpeed="10" />
    <vehicle id="r_1_106" type="standard_car" route="r_1" depart="606.0" departLane="random" departSpeed="10" />
    <vehicle id="r_2_107" type="standard_car" route="r_2" depart="606.0" departLane="random" departSpeed="10" />
    <vehicle id="r_4_108" type="standard_car" route="r_4" depart="607.0" departLane="random" departSpeed="10" />
    <vehicle id="r_4_109" type="standard_car" route="r_4" depart="614.0" departLane="random" departSpeed="10" />
    <vehicle id="r_3_110" type="standard_car" route="r_3" depart="616.0" departLane="random" departSpeed="10" />
    <vehicle id="r_6_111" type="standard_car" route="r_6" depart="616.0" departLane="random" departSpeed="10" />
    <vehicle id="r_5_112" type="standard_car" route="r_5" depart="619.0" departLane="random" departSpeed="10" />
    <vehicle id="r_4_113" type="standard_car" route="r_4" depart="622.0" departLane="random" departSpeed="10" />
    <vehicle id="r_3_114" type="standard_car" route="r_3" depart="631.0" departLane="random" departSpeed="10" />
    <vehicle id="r_4_115" type="standard_car" route="r_4" depart="631.0" departLane="random" departSpeed="10" />
    <vehicle id="r_6_116" type="standard_car" route="r_6" depart="631.0" departLane="random" departSpeed="10" />
    <vehicle id="r_2_117" type="standard_car" route="r_2" depart="632.0" departLane="random" departSpeed="10" />
    <vehicle id="r_4_118" type="standard_car" route="r_4" depart="632.0" departLane="random" departSpeed="10" />
    <vehicle id="r_1_119" type="standard_car" route="r_1" depart="636.0" departLane="random" departSpeed="10" />
    <vehicle id="r_4_120" type="standard_car" route="r_4" depart="636.0" departLane="random" departSpeed="10" />
    <vehicle id="r_4_121" type="standard_car" route="r_4" depart="636.0" departLane="random" departSpeed="10" />
    <vehicle id="r_1_122" type="standard_car" route="r_1" depart="636.0" departLane="random" departSpeed="10" />
    <vehicle id="r_6_123" type="standard_car" route="r_6" depart="636.0" departLane="random" departSpeed="10" />
    <vehicle id="r_1_124" type="standard_car" route="r_1" depart="639.0" departLane="random" departSpeed="10" />
    <vehicle id="r_5_125" type="standard_car" route="r_5" depart="640.0" departLane="random" departSpeed="10" />
    <vehicle id="r_4_126" type="standard_car" route="r_4" depart="644.0" departLane="random" departSpeed="10" />
    <vehicle id="r_3_127" type="standard_car" route="r_3" depart="644.0" departLane="random" departSpeed="10" />
    <vehicle id="r_0_128" type="standard_car" route="r_0" depart="654.0" departLane="random" departSpeed="10" />
    <vehicle id="r_0_129" type="standard_car" route="r_0" depart="669.0" departLane="random" departSpeed="10" />
    <vehicle id="r_3_130" type="standard_car" route="r_3" depart="669.0" departLane="random" departSpeed="10" />
    <vehicle id="r_0_131" type="standard_car" route="r_0" depart="675.0" departLane="random" departSpeed="10" />
    <vehicle id="r_3_132" type="standard_car" route="r_3" depart="675.0" departLane="random" departSpeed="10" />
    <vehicle id="r_1_133" type="standard_car" route="r_1" depart="676.0" departLane="random" departSpeed="10" />
    <vehicle id="r_4_134" type="standard_car" route="r_4" depart="677.0" departLane="random" departSpeed="10" />
    <vehicle id="r_1_135" type="standard_car" route="r_1" depart="677.0" departLane="random" departSpeed="10" />
    <vehicle id="r_4_136" type="standard_car" route="r_4" depart="679.0" departLane="random" departSpeed="10" />
    <vehicle id="r_3_137" type="standard_car" route="r_3" depart="681.0" departLane="random" departSpeed="10" />
    <vehicle id="r_4_138" type="standard_car" route="r_4" depart="681.0" departLane="random" departSpeed="10" />
    <vehicle id="r_4_139" type="standard_car" route="r_4" depart="687.0" departLane="random" departSpeed="10" />
    <vehicle id="r_4_140" type="standard_car" route="r_4" depart="691.0" departLane="random" departSpeed="10" />
    <vehicle id="r_5_141" type="standard_car" route="r_5" depart="694.0" departLane="random" departSpeed="10" />
    <vehicle id="r_3_142" type="standard_car" route="r_3" depart="697.0" departLane="random" departSpeed="10" />
    <vehicle id="r_2_143" type="standard_car" route="r_2" depart="700.0" departLane="random" departSpeed="10" />
    <vehicle id="r_0_144" type="standard_car" route="r_0" depart="700.0" departLane="random" departSpeed="10" />
    <vehicle id="r_6_145" type="standard_car" route="r_6" depart="703.0" departLane="random" departSpeed="10" />
    <vehicle id="r_4_146" type="standard_car" route="r_4" depart="708.0" departLane="random" departSpeed="10" />
    <vehicle id="r_3_147" type="standard_car" route="r_3" depart="712.0" departLane="random" departSpeed="10" />
    <vehicle id="r_1_148" type="standard_car" route="r_1" depart="718.0" departLane="random" departSpeed="10" />
    <vehicle id="r_1_149" type="standard_car" route="r_1" depart="720.0" departLane="random" departSpeed="10" />
    <vehicle id="r_3_150" type="standard_car" route="r_3" depart="720.0" departLane="random" departSpeed="10" />
    <vehicle id="r_4_151" type="standard_car" route="r_4" depart="720.0" departLane="random" departSpeed="10" />
    <vehicle id="r_4_152" type="standard_car" route="r_4" depart="721.0" departLane="random" departSpeed="10" />
    <vehicle id="r_3_153" type="standard_car" route="r_3" depart="724.0" departLane="random" departSpeed="10" />
    <vehicle id="r_0_154" type="standard_car" route="r_0" depart="728.0" departLane="random" departSpeed="10" />
    <vehicle id="r_1_155" type="standard_car" route="r_1" depart="732.0" departLane="random" departSpeed="10" />
    <vehicle id="r_4_156" type="standard_car" route="r_4" depart="734.0" departLane="random" departSpeed="10" />
    <vehicle id="r_0_157" type="standard_car" route="r_0" depart="742.0" departLane="random" departSpeed="10" />
    <vehicle id="r_0_158" type="standard_car" route="r_0" depart="749.0" departLane="random" departSpeed="10" />
    <vehicle id="r_0_159" type="standard_car" route="r_0" depart="749.0" departLane="random" departSpeed="10" />
    <vehicle id="r_0_160" type="standard_car" route="r_0" depart="750.0" departLane="random" departSpeed="10" />
    <vehicle id="r_3_161" type="standard_car" route="r_3" depart="751.0" departLane="random" departSpeed="10" />
    <vehicle id="r_0_162" type="standard_car" route="r_0" depart="752.0" departLane="random" departSpeed="10" />
    <vehicle id="r_0_163" type="standard_car" route="r_0" depart="753.0" departLane="random" departSpeed="10" />
    <vehicle id="r_4_164" type="standard_car" route="r_4" depart="753.0" departLane="random" departSpeed="10" />
    <vehicle id="r_3_165" type="standard_car" route="r_3" depart="755.0" departLane="random" departSpeed="10" />
    <vehicle id="r_4_166" type="standard_car" route="r_4" depart="757.0" departLane="random" departSpeed="10" />
    <vehicle id="r_6_167" type="standard_car" route="r_6" depart="758.0" departLane="random" departSpeed="10" />
    <vehicle id="r_3_168" type="standard_car" route="r_3" depart="758.0" departLane="random" departSpeed="10" />
    <vehicle id="r_1_169" type="standard_car" route="r_1" depart="759.0" departLane="random" departSpeed="10" />
    <vehicle id="r_1_170" type="standard_car" route="r_1" depart="764.0" departLane="random" departSpeed="10" />
    <vehicle id="r_5_171" type="standard_car" route="r_5" depart="767.0" departLane="random" departSpeed="10" />
    <vehicle id="r_0_172" type="standard_car" route="r_0" depart="775.0" departLane="random" departSpeed="10" />
    <vehicle id="r_1_173" type="standard_car" route="r_1" depart="781.0" departLane="random" departSpeed="10" />
    <vehicle id="r_5_174" type="standard_car" route="r_5" depart="782.0" departLane="random" departSpeed="10" />
    <vehicle id="r_4_175" type="standard_car" route="r_4" depart="784.0" departLane="random" departSpeed="10" />
    <vehicle id="r_6_176" type="standard_car" route="r_6" depart="789.0" departLane="random" departSpeed="10" />
    <vehicle id="r_3_177" type="standard_car" route="r_3" depart="789.0" departLane="random" departSpeed="10" />
    <vehicle id="r_4_178" type="standard_car" route="r_4" depart="790.0" departLane="random" departSpeed="10" />
    <vehicle id="r_0_179" type="standard_car" route="r_0" depart="793.0" departLane="random" departSpeed="10" />
    <vehicle id="r_4_180" type="standard_car" route="r_4" depart="794.0" departLane="random" departSpeed="10" />
    <vehicle id="r_3_181" type="standard_car" route="r_3" depart="798.0" departLane="random" departSpeed="10" />
    <vehicle id="r_1_182" type="standard_car" route="r_1" depart="801.0" departLane="random" departSpeed="10" />
    <vehicle id="r_4_183" type="standard_car" route="r_4" depart="801.0" departLane="random" departSpeed="10" />
    <vehicle id="r_4_184" type="standard_car" route="r_4" depart="805.0" departLane="random" departSpeed="10" />
    <vehicle id="r_4_185" type="standard_car" route="r_4" depart="809.0" departLane="random" departSpeed="10" />
    <vehicle id="r_3_186" type="standard_car" route="r_3" depart="810.0" departLane="random" departSpeed="10" />
    <vehicle id="r_3_187" type="standard_car" route="r_3" depart="810.0" departLane="random" departSpeed="10" />
    <vehicle id="r_4_188" type="standard_car" route="r_4" depart="815.0" departLane="random" departSpeed="10" />
    <vehicle id="r_0_189" type="standard_car" route="r_0" depart="815.0" departLane="random" departSpeed="10" />
    <vehicle id="r_5_190" type="standard_car" route="r_5" depart="816.0" departLane="random" departSpeed="10" />
    <vehicle id="r_3_191" type="standard_car" route="r_3" depart="817.0" departLane="random" departSpeed="10" />
    <vehicle id="r_1_192" type="standard_car" route="r_1" depart="819.0" departLane="random" departSpeed="10" />
    <vehicle id="r_1_193" type="standard_car" route="r_1" depart="826.0" departLane="random" departSpeed="10" />
    <vehicle id="r_3_194" type="standard_car" route="r_3" depart="828.0" departLane="random" departSpeed="10" />
    <vehicle id="r_0_195" type="standard_car" route="r_0" depart="842.0" departLane="random" departSpeed="10" />
    <vehicle id="r_1_196" type="standard_car" route="r_1" depart="843.0" departLane="random" departSpeed="10" />
    <vehicle id="r_1_197" type="standard_car" route="r_1" depart="844.0" departLane="random" departSpeed="10" />
    <vehicle id="r_3_198" type="standard_car" route="r_3" depart="849.0" departLane="random" departSpeed="10" />
    <vehicle id="r_6_199" type="standard_car" route="r_6" depart="850.0" departLane="random" departSpeed="10" />
    <vehicle id="r_2_200" type="standard_car" route="r_2" depart="862.0" departLane="random" departSpeed="10" />
    <vehicle id="r_4_201" type="standard_car" route="r_4" depart="868.0" departLane="random" departSpeed="10" />
    <vehicle id="r_3_202" type="standard_car" route="r_3" depart="870.0" departLane="random" departSpeed="10" />
    <vehicle id="r_3_203" type="standard_car" route="r_3" depart="871.0" departLane="random" departSpeed="10" />
    <vehicle id="r_3_204" type="standard_car" route="r_3" depart="873.0" departLane="random" departSpeed="10" />
    <vehicle id="r_0_205" type="standard_car" route="r_0" depart="874.0" departLane="random" departSpeed="10" />
    <vehicle id="r_2_206" type="standard_car" route="r_2" depart="875.0" departLane="random" departSpeed="10" />
    <vehicle id="r_3_207" type="standard_car" route="r_3" depart="877.0" departLane="random" departSpeed="10" />
    <vehicle id="r_4_208" type="standard_car" route="r_4" depart="880.0" departLane="random" departSpeed="10" />
    <vehicle id="r_3_209" type="standard_car" route="r_3" depart="882.0" departLane="random" departSpeed="10" />
    <vehicle id="r_3_210" type="standard_car" route="r_3" depart="883.0" departLane="random" departSpeed="10" />
    <vehicle id="r_6_211" type="standard_car" route="r_6" depart="887.0" departLane="random" departSpeed="10" />
    <vehicle id="r_4_212" type="standard_car" route="r_4" depart="887.0" departLane="random" departSpeed="10" />
    <vehicle id="r_4_213" type="standard_car" route="r_4" depart="889.0" departLane="random" departSpeed="10" />
    <vehicle id="r_1_214" type="standard_car" route="r_1" depart="890.0" departLane="random" departSpeed="10" />
    <vehicle id="r_4_215" type="standard_car" route="r_4" depart="890.0" departLane="random" departSpeed="10" />
    <vehicle id="r_6_216" type="standard_car" route="r_6" depart="892.0" departLane="random" departSpeed="10" />
    <vehicle id="r_1_217" type="standard_car" route="r_1" depart="897.0" departLane="random" departSpeed="10" />
    <vehicle id="r_4_218" type="standard_car" route="r_4" depart="900.0" departLane="random" departSpeed="10" />
    <vehicle id="r_1_219" type="standard_car" route="r_1" depart="900.0" departLane="random" departSpeed="10" />
    <vehicle id="r_3_220" type="standard_car" route="r_3" depart="904.0" departLane="random" departSpeed="10" />
    <vehicle id="r_4_221" type="standard_car" route="r_4" depart="904.0" departLane="random" departSpeed="10" />
    <vehicle id="r_4_222" type="standard_car" route="r_4" depart="906.0" departLane="random" departSpeed="10" />
    <vehicle id="r_0_223" type="standard_car" route="r_0" depart="907.0" departLane="random" departSpeed="10" />
    <vehicle id="r_4_224" type="standard_car" route="r_4" depart="914.0" departLane="random" departSpeed="10" />
    <vehicle id="r_1_225" type="standard_car" route="r_1" depart="914.0" departLane="random" departSpeed="10" />
    <vehicle id="r_4_226" type="standard_car" route="r_4" depart="915.0" departLane="random" departSpeed="10" />
    <vehicle id="r_4_227" type="standard_car" route="r_4" depart="917.0" departLane="random" departSpeed="10" />
    <vehicle id="r_4_228" type="standard_car" route="r_4" depart="919.0" departLane="random" departSpeed="10" />
    <vehicle id="r_3_229" type="standard_car" route="r_3" depart="924.0" departLane="random" departSpeed="10" />
    <vehicle id="r_2_230" type="standard_car" route="r_2" depart="925.0" departLane="random" departSpeed="10" />
    <vehicle id="r_3_231" type="standard_car" route="r_3" depart="926.0" departLane="random" departSpeed="10" />
    <vehicle id="r_3_232" type="standard_car" route="r_3" depart="926.0" departLane="random" departSpeed="10" />
    <vehicle id="r_4_233" type="standard_car" route="r_4" depart="928.0" departLane="random" departSpeed="10" />
    <vehicle id="r_0_234" type="standard_car" route="r_0" depart="938.0" departLane="random" departSpeed="10" />
    <vehicle id="r_4_235" type="standard_car" route="r_4" depart="938.0" departLane="random" departSpeed="10" />
    <vehicle id="r_1_236" type="standard_car" route="r_1" depart="938.0" departLane="random" departSpeed="10" />
    <vehicle id="r_0_237" type="standard_car" route="r_0" depart="939.0" departLane="random" departSpeed="10" />
    <vehicle id="r_0_238" type="standard_car" route="r_0" depart="943.0" departLane="random" departSpeed="10" />
    <vehicle id="r_1_239" type="standard_car" route="r_1" depart="945.0" departLane="random" departSpeed="10" />
    <vehicle id="r_3_240" type="standard_car" route="r_3" depart="946.0" departLane="random" departSpeed="10" />
    <vehicle id="r_5_241" type="standard_car" route="r_5" depart="946.0" departLane="random" departSpeed="10" />
    <vehicle id="r_3_242" type="standard_car" route="r_3" depart="947.0" departLane="random" departSpeed="10" />
    <vehicle id="r_5_243" type="standard_car" route="r_5" depart="948.0" departLane="random" departSpeed="10" />
    <vehicle id="r_6_244" type="standard_car" route="r_6" depart="953.0" departLane="random" departSpeed="10" />
    <vehicle id="r_5_245" type="standard_car" route="r_5" depart="954.0" departLane="random" departSpeed="10" />
    <vehicle id="r_1_246" type="standard_car" route="r_1" depart="955.0" departLane="random" departSpeed="10" />
    <vehicle id="r_3_247" type="standard_car" route="r_3" depart="957.0" departLane="random" departSpeed="10" />
    <vehicle id="r_3_248" type="standard_car" route="r_3" depart="958.0" departLane="random" departSpeed="10" />
    <vehicle id="r_1_249" type="standard_car" route="r_1" depart="960.0" departLane="random" departSpeed="10" />
    <vehicle id="r_3_250" type="standard_car" route="r_3" depart="960.0" departLane="random" departSpeed="10" />
    <vehicle id="r_4_251" type="standard_car" route="r_4" depart="962.0" departLane="random" departSpeed="10" />
    <vehicle id="r_0_252" type="standard_car" route="r_0" depart="963.0" departLane="random" departSpeed="10" />
    <vehicle id="r_0_253" type="standard_car" route="r_0" depart="964.0" departLane="random" departSpeed="10" />
    <vehicle id="r_4_254" type="standard_car" route="r_4" depart="966.0" departLane="random" departSpeed="10" />
    <vehicle id="r_1_255" type="standard_car" route="r_1" depart="970.0" departLane="random" departSpeed="10" />
    <vehicle id="r_0_256" type="standard_car" route="r_0" depart="973.0" departLane="random" departSpeed="10" />
    <vehicle id="r_1_257" type="standard_car" route="r_1" depart="973.0" departLane="random" departSpeed="10" />
    <vehicle id="r_0_258" type="standard_car" route="r_0" depart="974.0" departLane="random" departSpeed="10" />