<?xml version="1.0" encoding="UTF-8"?>

<!-- generated on 2023-05-15 15:26:09 by Eclipse SUMO sumo Version 1.16.0
-->

<configuration xmlns:xsi="http://www.w3.org/2001/XMLSchema-instance" xsi:noNamespaceSchemaLocation="http://sumo.dlr.de/xsd/sumoConfiguration.xsd">

    <input>
        <net-file value="STLs.net.xml"/>
        <route-files value="STLs.rou.xml"/>
        <junction-taz value="true"/>
    </input>

</configuration>
