<routes>
            <vType accel="1.0" decel="4.5" id="standard_car" length="5.0" minGap="2.5" maxSpeed="25" sigma="0.5" />

            


            <route id="r_0" edges="E4"/>

            <route id="r_1" edges="E4 -E3"/>

            <route id="r_2" edges="E4 -E5"/>

            <route id="r_3" edges="E3 -E5"/>

            <route id="r_4" edges="E3 -E4"/>

            <route id="r_5"  edges="E5 -E4"/>

            <route id="r_6" edges="E5 -E3"/>
    <vehicle id="r_1_0" type="standard_car" route="r_1" depart="61.0" departLane="random" departSpeed="10" />
    <vehicle id="r_0_1" type="standard_car" route="r_0" depart="85.0" departLane="random" departSpeed="10" />
    <vehicle id="r_4_2" type="standard_car" route="r_4" depart="86.0" departLane="random" departSpeed="10" />
    <vehicle id="r_1_3" type="standard_car" route="r_1" depart="94.0" departLane="random" departSpeed="10" />
    <vehicle id="r_1_4" type="standard_car" route="r_1" depart="104.0" departLane="random" departSpeed="10" />
    <vehicle id="r_3_5" type="standard_car" route="r_3" depart="116.0" departLane="random" departSpeed="10" />
    <vehicle id="r_4_6" type="standard_car" route="r_4" depart="116.0" departLane="random" departSpeed="10" />
    <vehicle id="r_3_7" type="standard_car" route="r_3" depart="126.0" departLane="random" departSpeed="10" />
    <vehicle id="r_4_8" type="standard_car" route="r_4" depart="126.0" departLane="random" departSpeed="10" />
    <vehicle id="r_4_9" type="standard_car" route="r_4" depart="136.0" departLane="random" departSpeed="10" />
    <vehicle id="r_0_10" type="standard_car" route="r_0" depart="137.0" departLane="random" departSpeed="10" />
    <vehicle id="r_4_11" type="standard_car" route="r_4" depart="137.0" departLane="random" departSpeed="10" />
    <vehicle id="r_3_12" type="standard_car" route="r_3" depart="140.0" departLane="random" departSpeed="10" />
    <vehicle id="r_4_13" type="standard_car" route="r_4" depart="143.0" departLane="random" departSpeed="10" />
    <vehicle id="r_5_14" type="standard_car" route="r_5" depart="144.0" departLane="random" departSpeed="10" />
    <vehicle id="r_0_15" type="standard_car" route="r_0" depart="146.0" departLane="random" departSpeed="10" />
    <vehicle id="r_3_16" type="standard_car" route="r_3" depart="152.0" departLane="random" departSpeed="10" />
    <vehicle id="r_3_17" type="standard_car" route="r_3" depart="157.0" departLane="random" departSpeed="10" />
    <vehicle id="r_0_18" type="standard_car" route="r_0" depart="169.0" departLane="random" departSpeed="10" />
    <vehicle id="r_4_19" type="standard_car" route="r_4" depart="172.0" departLane="random" departSpeed="10" />
    <vehicle id="r_5_20" type="standard_car" route="r_5" depart="178.0" departLane="random" departSpeed="10" />
    <vehicle id="r_4_21" type="standard_car" route="r_4" depart="182.0" departLane="random" departSpeed="10" />
    <vehicle id="r_4_22" type="standard_car" route="r_4" depart="183.0" departLane="random" departSpeed="10" />
    <vehicle id="r_3_23" type="standard_car" route="r_3" depart="186.0" departLane="random" departSpeed="10" />
    <vehicle id="r_0_24" type="standard_car" route="r_0" depart="189.0" departLane="random" departSpeed="10" />
    <vehicle id="r_0_25" type="standard_car" route="r_0" depart="193.0" departLane="random" departSpeed="10" />
    <vehicle id="r_3_26" type="standard_car" route="r_3" depart="194.0" departLane="random" departSpeed="10" />
    <vehicle id="r_4_27" type="standard_car" route="r_4" depart="199.0" departLane="random" departSpeed="10" />
    <vehicle id="r_3_28" type="standard_car" route="r_3" depart="202.0" departLane="random" departSpeed="10" />
    <vehicle id="r_5_29" type="standard_car" route="r_5" depart="206.0" departLane="random" departSpeed="10" />
    <vehicle id="r_0_30" type="standard_car" route="r_0" depart="207.0" departLane="random" departSpeed="10" />
    <vehicle id="r_1_31" type="standard_car" route="r_1" depart="208.0" departLane="random" departSpeed="10" />
    <vehicle id="r_0_32" type="standard_car" route="r_0" depart="215.0" departLane="random" departSpeed="10" />
    <vehicle id="r_4_33" type="standard_car" route="r_4" depart="217.0" departLane="random" departSpeed="10" />
    <vehicle id="r_4_34" type="standard_car" route="r_4" depart="222.0" departLane="random" departSpeed="10" />
    <vehicle id="r_0_35" type="standard_car" route="r_0" depart="223.0" departLane="random" departSpeed="10" />
    <vehicle id="r_1_36" type="standard_car" route="r_1" depart="224.0" departLane="random" departSpeed="10" />
    <vehicle id="r_4_37" type="standard_car" route="r_4" depart="225.0" departLane="random" departSpeed="10" />
    <vehicle id="r_1_38" type="standard_car" route="r_1" depart="225.0" departLane="random" departSpeed="10" />
    <vehicle id="r_2_39" type="standard_car" route="r_2" depart="225.0" departLane="random" departSpeed="10" />
    <vehicle id="r_4_40" type="standard_car" route="r_4" depart="226.0" departLane="random" departSpeed="10" />
    <vehicle id="r_5_41" type="standard_car" route="r_5" depart="227.0" departLane="random" departSpeed="10" />
    <vehicle id="r_1_42" type="standard_car" route="r_1" depart="236.0" departLane="random" departSpeed="10" />
    <vehicle id="r_3_43" type="standard_car" route="r_3" depart="237.0" departLane="random" departSpeed="10" />
    <vehicle id="r_3_44" type="standard_car" route="r_3" depart="239.0" departLane="random" departSpeed="10" />
    <vehicle id="r_1_45" type="standard_car" route="r_1" depart="248.0" departLane="random" departSpeed="10" />
    <vehicle id="r_1_46" type="standard_car" route="r_1" depart="252.0" departLane="random" departSpeed="10" />
    <vehicle id="r_3_47" type="standard_car" route="r_3" depart="255.0" departLane="random" departSpeed="10" />
    <vehicle id="r_0_48" type="standard_car" route="r_0" depart="260.0" departLane="random" departSpeed="10" />
    <vehicle id="r_3_49" type="standard_car" route="r_3" depart="267.0" departLane="random" departSpeed="10" />
    <vehicle id="r_0_50" type="standard_car" route="r_0" depart="276.0" departLane="random" departSpeed="10" />
    <vehicle id="r_5_51" type="standard_car" route="r_5" depart="280.0" departLane="random" departSpeed="10" />
    <vehicle id="r_3_52" type="standard_car" route="r_3" depart="280.0" departLane="random" departSpeed="10" />
    <vehicle id="r_5_53" type="standard_car" route="r_5" depart="282.0" departLane="random" departSpeed="10" />
    <vehicle id="r_4_54" type="standard_car" route="r_4" depart="283.0" departLane="random" departSpeed="10" />
    <vehicle id="r_3_55" type="standard_car" route="r_3" depart="294.0" departLane="random" departSpeed="10" />
    <vehicle id="r_3_56" type="standard_car" route="r_3" depart="296.0" departLane="random" departSpeed="10" />
    <vehicle id="r_0_57" type="standard_car" route="r_0" depart="301.0" departLane="random" departSpeed="10" />
    <vehicle id="r_4_58" type="standard_car" route="r_4" depart="302.0" departLane="random" departSpeed="10" />
    <vehicle id="r_3_59" type="standard_car" route="r_3" depart="307.0" departLane="random" departSpeed="10" />
    <vehicle id="r_1_60" type="standard_car" route="r_1" depart="307.0" departLane="random" departSpeed="10" />
    <vehicle id="r_3_61" type="standard_car" route="r_3" depart="311.0" departLane="random" departSpeed="10" />
    <vehicle id="r_0_62" type="standard_car" route="r_0" depart="313.0" departLane="random" departSpeed="10" />
    <vehicle id="r_1_63" type="standard_car" route="r_1" depart="313.0" departLane="random" departSpeed="10" />
    <vehicle id="r_6_64" type="standard_car" route="r_6" depart="330.0" departLane="random" departSpeed="10" />
    <vehicle id="r_1_65" type="standard_car" route="r_1" depart="332.0" departLane="random" departSpeed="10" />
    <vehicle id="r_6_66" type="standard_car" route="r_6" depart="334.0" departLane="random" departSpeed="10" />
    <vehicle id="r_4_67" type="standard_car" route="r_4" depart="338.0" departLane="random" departSpeed="10" />
    <vehicle id="r_1_68" type="standard_car" route="r_1" depart="341.0" departLane="random" departSpeed="10" />
    <vehicle id="r_1_69" type="standard_car" route="r_1" depart="344.0" departLane="random" departSpeed="10" />
    <vehicle id="r_0_70" type="standard_car" route="r_0" depart="345.0" departLane="random" departSpeed="10" />
    <vehicle id="r_3_71" type="standard_car" route="r_3" depart="346.0" departLane="random" departSpeed="10" />
    <vehicle id="r_0_72" type="standard_car" route="r_0" depart="348.0" departLane="random" departSpeed="10" />
    <vehicle id="r_0_73" type="standard_car" route="r_0" depart="351.0" departLane="random" departSpeed="10" />
    <vehicle id="r_0_74" type="standard_car" route="r_0" depart="353.0" departLane="random" departSpeed="10" />
    <vehicle id="r_3_75" type="standard_car" route="r_3" depart="356.0" departLane="random" departSpeed="10" />
    <vehicle id="r_2_76" type="standard_car" route="r_2" depart="356.0" departLane="random" departSpeed="10" />
    <vehicle id="r_3_77" type="standard_car" route="r_3" depart="358.0" departLane="random" departSpeed="10" />
    <vehicle id="r_0_78" type="standard_car" route="r_0" depart="358.0" departLane="random" departSpeed="10" />
    <vehicle id="r_3_79" type="standard_car" route="r_3" depart="363.0" departLane="random" departSpeed="10" />
    <vehicle id="r_3_80" type="standard_car" route="r_3" depart="364.0" departLane="random" departSpeed="10" />
    <vehicle id="r_3_81" type="standard_car" route="r_3" depart="364.0" departLane="random" departSpeed="10" />
    <vehicle id="r_0_82" type="standard_car" route="r_0" depart="365.0" departLane="random" departSpeed="10" />
    <vehicle id="r_6_83" type="standard_car" route="r_6" depart="366.0" departLane="random" departSpeed="10" />
    <vehicle id="r_2_84" type="standard_car" route="r_2" depart="366.0" departLane="random" departSpeed="10" />
    <vehicle id="r_4_85" type="standard_car" route="r_4" depart="366.0" departLane="random" departSpeed="10" />
    <vehicle id="r_4_86" type="standard_car" route="r_4" depart="372.0" departLane="random" departSpeed="10" />
    <vehicle id="r_0_87" type="standard_car" route="r_0" depart="373.0" departLane="random" departSpeed="10" />
    <vehicle id="r_4_88" type="standard_car" route="r_4" depart="373.0" departLane="random" departSpeed="10" />
    <vehicle id="r_6_89" type="standard_car" route="r_6" depart="377.0" departLane="random" departSpeed="10" />
    <vehicle id="r_4_90" type="standard_car" route="r_4" depart="381.0" departLane="random" departSpeed="10" />
    <vehicle id="r_4_91" type="standard_car" route="r_4" depart="384.0" departLane="random" departSpeed="10" />
    <vehicle id="r_4_92" type="standard_car" route="r_4" depart="384.0" departLane="random" departSpeed="10" />
    <vehicle id="r_3_93" type="standard_car" route="r_3" depart="385.0" departLane="random" departSpeed="10" />
    <vehicle id="r_5_94" type="standard_car" route="r_5" depart="393.0" departLane="random" departSpeed="10" />
    <vehicle id="r_1_95" type="standard_car" route="r_1" depart="394.0" departLane="random" departSpeed="10" />
    <vehicle id="r_3_96" type="standard_car" route="r_3" depart="397.0" departLane="random" departSpeed="10" />
    <vehicle id="r_0_97" type="standard_car" route="r_0" depart="397.0" departLane="random" departSpeed="10" />
    <vehicle id="r_4_98" type="standard_car" route="r_4" depart="399.0" departLane="random" departSpeed="10" />
    <vehicle id="r_4_99" type="standard_car" route="r_4" depart="399.0" departLane="random" departSpeed="10" />
    <vehicle id="r_1_100" type="standard_car" route="r_1" depart="401.0" departLane="random" departSpeed="10" />
    <vehicle id="r_4_101" type="standard_car" route="r_4" depart="402.0" departLane="random" departSpeed="10" />
    <vehicle id="r_3_102" type="standard_car" route="r_3" depart="402.0" departLane="random" departSpeed="10" />
    <vehicle id="r_5_103" type="standard_car" route="r_5" depart="403.0" departLane="random" departSpeed="10" />
    <vehicle id="r_1_104" type="standard_car" route="r_1" depart="405.0" departLane="random" departSpeed="10" />
    <vehicle id="r_1_105" type="standard_car" route="r_1" depart="406.0" departLane="random" departSpeed="10" />
    <vehicle id="r_1_106" type="standard_car" route="r_1" depart="407.0" departLane="random" departSpeed="10" />
    <vehicle id="r_1_107" type="standard_car" route="r_1" depart="408.0" departLane="random" departSpeed="10" />
    <vehicle id="r_0_108" type="standard_car" route="r_0" depart="411.0" departLane="random" departSpeed="10" />
    <vehicle id="r_4_109" type="standard_car" route="r_4" depart="412.0" departLane="random" departSpeed="10" />
    <vehicle id="r_4_110" type="standard_car" route="r_4" depart="414.0" departLane="random" departSpeed="10" />
    <vehicle id="r_3_111" type="standard_car" route="r_3" depart="414.0" departLane="random" departSpeed="10" />
    <vehicle id="r_0_112" type="standard_car" route="r_0" depart="416.0" departLane="random" departSpeed="10" />
    <vehicle id="r_0_113" type="standard_car" route="r_0" depart="417.0" departLane="random" departSpeed="10" />
    <vehicle id="r_0_114" type="standard_car" route="r_0" depart="418.0" departLane="random" departSpeed="10" />
    <vehicle id="r_1_115" type="standard_car" route="r_1" depart="419.0" departLane="random" departSpeed="10" />
    <vehicle id="r_1_116" type="standard_car" route="r_1" depart="421.0" departLane="random" departSpeed="10" />
    <vehicle id="r_3_117" type="standard_car" route="r_3" depart="421.0" departLane="random" departSpeed="10" />
    <vehicle id="r_0_118" type="standard_car" route="r_0" depart="425.0" departLane="random" departSpeed="10" />
    <vehicle id="r_1_119" type="standard_car" route="r_1" depart="430.0" departLane="random" departSpeed="10" />
    <vehicle id="r_6_120" type="standard_car" route="r_6" depart="431.0" departLane="random" departSpeed="10" />
    <vehicle id="r_1_121" type="standard_car" route="r_1" depart="433.0" departLane="random" departSpeed="10" />
    <vehicle id="r_4_122" type="standard_car" route="r_4" depart="437.0" departLane="random" departSpeed="10" />
    <vehicle id="r_1_123" type="standard_car" route="r_1" depart="437.0" departLane="random" departSpeed="10" />
    <vehicle id="r_0_124" type="standard_car" route="r_0" depart="437.0" departLane="random" departSpeed="10" />
    <vehicle id="r_4_125" type="standard_car" route="r_4" depart="439.0" departLane="random" departSpeed="10" />
    <vehicle id="r_4_126" type="standard_car" route="r_4" depart="445.0" departLane="random" departSpeed="10" />
    <vehicle id="r_0_127" type="standard_car" route="r_0" depart="446.0" departLane="random" departSpeed="10" />
    <vehicle id="r_6_128" type="standard_car" route="r_6" depart="449.0" departLane="random" departSpeed="10" />
    <vehicle id="r_3_129" type="standard_car" route="r_3" depart="456.0" departLane="random" departSpeed="10" />
    <vehicle id="r_3_130" type="standard_car" route="r_3" depart="456.0" departLane="random" departSpeed="10" />
    <vehicle id="r_2_131" type="standard_car" route="r_2" depart="460.0" departLane="random" departSpeed="10" />
    <vehicle id="r_3_132" type="standard_car" route="r_3" depart="462.0" departLane="random" departSpeed="10" />
    <vehicle id="r_4_133" type="standard_car" route="r_4" depart="464.0" departLane="random" departSpeed="10" />
    <vehicle id="r_4_134" type="standard_car" route="r_4" depart="464.0" departLane="random" departSpeed="10" />
    <vehicle id="r_4_135" type="standard_car" route="r_4" depart="465.0" departLane="random" departSpeed="10" />
    <vehicle id="r_3_136" type="standard_car" route="r_3" depart="471.0" departLane="random" departSpeed="10" />
    <vehicle id="r_3_137" type="standard_car" route="r_3" depart="478.0" departLane="random" departSpeed="10" />
    <vehicle id="r_3_138" type="standard_car" route="r_3" depart="484.0" departLane="random" departSpeed="10" />
    <vehicle id="r_4_139" type="standard_car" route="r_4" depart="484.0" departLane="random" departSpeed="10" />
    <vehicle id="r_1_140" type="standard_car" route="r_1" depart="484.0" departLane="random" departSpeed="10" />
    <vehicle id="r_1_141" type="standard_car" route="r_1" depart="490.0" departLane="random" departSpeed="10" />
    <vehicle id="r_3_142" type="standard_car" route="r_3" depart="493.0" departLane="random" departSpeed="10" />
    <vehicle id="r_4_143" type="standard_car" route="r_4" depart="493.0" departLane="random" departSpeed="10" />
    <vehicle id="r_1_144" type="standard_car" route="r_1" depart="495.0" departLane="random" departSpeed="10" />
    <vehicle id="r_1_145" type="standard_car" route="r_1" depart="496.0" departLane="random" departSpeed="10" />
    <vehicle id="r_4_146" type="standard_car" route="r_4" depart="496.0" departLane="random" departSpeed="10" />
    <vehicle id="r_0_147" type="standard_car" route="r_0" depart="498.0" departLane="random" departSpeed="10" />
    <vehicle id="r_6_148" type="standard_car" route="r_6" depart="500.0" departLane="random" departSpeed="10" />
    <vehicle id="r_4_149" type="standard_car" route="r_4" depart="500.0" departLane="random" departSpeed="10" />
    <vehicle id="r_4_150" type="standard_car" route="r_4" depart="500.0" departLane="random" departSpeed="10" />
    <vehicle id="r_3_151" type="standard_car" route="r_3" depart="502.0" departLane="random" departSpeed="10" />
    <vehicle id="r_1_152" type="standard_car" route="r_1" depart="503.0" departLane="random" departSpeed="10" />
    <vehicle id="r_1_153" type="standard_car" route="r_1" depart="503.0" departLane="random" departSpeed="10" />
    <vehicle id="r_5_154" type="standard_car" route="r_5" depart="503.0" departLane="random" departSpeed="10" />
    <vehicle id="r_3_155" type="standard_car" route="r_3" depart="503.0" departLane="random" departSpeed="10" />
    <vehicle id="r_6_156" type="standard_car" route="r_6" depart="507.0" departLane="random" departSpeed="10" />
    <vehicle id="r_3_157" type="standard_car" route="r_3" depart="512.0" departLane="random" departSpeed="10" />
    <vehicle id="r_3_158" type="standard_car" route="r_3" depart="513.0" departLane="random" departSpeed="10" />
    <vehicle id="r_4_159" type="standard_car" route="r_4" depart="515.0" departLane="random" departSpeed="10" />
    <vehicle id="r_4_160" type="standard_car" route="r_4" depart="515.0" departLane="random" departSpeed="10" />
    <vehicle id="r_1_161" type="standard_car" route="r_1" depart="520.0" departLane="random" departSpeed="10" />
    <vehicle id="r_3_162" type="standard_car" route="r_3" depart="521.0" departLane="random" departSpeed="10" />
    <vehicle id="r_5_163" type="standard_car" route="r_5" depart="521.0" departLane="random" departSpeed="10" />
    <vehicle id="r_4_164" type="standard_car" route="r_4" depart="525.0" departLane="random" departSpeed="10" />
    <vehicle id="r_4_165" type="standard_car" route="r_4" depart="527.0" departLane="random" departSpeed="10" />
    <vehicle id="r_1_166" type="standard_car" route="r_1" depart="527.0" departLane="random" departSpeed="10" />
    <vehicle id="r_4_167" type="standard_car" route="r_4" depart="529.0" departLane="random" departSpeed="10" />
    <vehicle id="r_4_168" type="standard_car" route="r_4" depart="529.0" departLane="random" departSpeed="10" />
    <vehicle id="r_3_169" type="standard_car" route="r_3" depart="531.0" departLane="random" departSpeed="10" />
    <vehicle id="r_2_170" type="standard_car" route="r_2" depart="533.0" departLane="random" departSpeed="10" />
    <vehicle id="r_2_171" type="standard_car" route="r_2" depart="533.0" departLane="random" departSpeed="10" />
    <vehicle id="r_0_172" type="standard_car" route="r_0" depart="534.0" departLane="random" departSpeed="10" />
    <vehicle id="r_1_173" type="standard_car" route="r_1" depart="537.0" departLane="random" departSpeed="10" />
    <vehicle id="r_4_174" type="standard_car" route="r_4" depart="537.0" departLane="random" departSpeed="10" />
    <vehicle id="r_3_175" type="standard_car" route="r_3" depart="541.0" departLane="random" departSpeed="10" />
    <vehicle id="r_1_176" type="standard_car" route="r_1" depart="544.0" departLane="random" departSpeed="10" />
    <vehicle id="r_0_177" type="standard_car" route="r_0" depart="547.0" departLane="random" departSpeed="10" />
    <vehicle id="r_0_178" type="standard_car" route="r_0" depart="553.0" departLane="random" departSpeed="10" />
    <vehicle id="r_1_179" type="standard_car" route="r_1" depart="559.0" departLane="random" departSpeed="10" />
    <vehicle id="r_0_180" type="standard_car" route="r_0" depart="560.0" departLane="random" departSpeed="10" />
    <vehicle id="r_6_181" type="standard_car" route="r_6" depart="563.0" departLane="random" departSpeed="10" />
    <vehicle id="r_3_182" type="standard_car" route="r_3" depart="566.0" departLane="random" departSpeed="10" />
    <vehicle id="r_1_183" type="standard_car" route="r_1" depart="569.0" departLane="random" departSpeed="10" />
    <vehicle id="r_0_184" type="standard_car" route="r_0" depart="570.0" departLane="random" departSpeed="10" />
    <vehicle id="r_1_185" type="standard_car" route="r_1" depart="570.0" departLane="random" departSpeed="10" />
    <vehicle id="r_6_186" type="standard_car" route="r_6" depart="571.0" departLane="random" departSpeed="10" />
    <vehicle id="r_1_187" type="standard_car" route="r_1" depart="571.0" departLane="random" departSpeed="10" />
    <vehicle id="r_3_188" type="standard_car" route="r_3" depart="572.0" departLane="random" departSpeed="10" />
    <vehicle id="r_1_189" type="standard_car" route="r_1" depart="574.0" departLane="random" departSpeed="10" />
    <vehicle id="r_3_190" type="standard_car" route="r_3" depart="575.0" departLane="random" departSpeed="10" />
    <vehicle id="r_3_191" type="standard_car" route="r_3" depart="575.0" departLane="random" departSpeed="10" />
    <vehicle id="r_0_192" type="standard_car" route="r_0" depart="575.0" departLane="random" departSpeed="10" />
    <vehicle id="r_2_193" type="standard_car" route="r_2" depart="578.0" departLane="random" departSpeed="10" />
    <vehicle id="r_0_194" type="standard_car" route="r_0" depart="580.0" departLane="random" departSpeed="10" />
    <vehicle id="r_0_195" type="standard_car" route="r_0" depart="580.0" departLane="random" departSpeed="10" />
    <vehicle id="r_6_196" type="standard_car" route="r_6" depart="585.0" departLane="random" departSpeed="10" />
    <vehicle id="r_2_197" type="standard_car" route="r_2" depart="585.0" departLane="random" departSpeed="10" />
    <vehicle id="r_3_198" type="standard_car" route="r_3" depart="587.0" departLane="random" departSpeed="10" />
    <vehicle id="r_3_199" type="standard_car" route="r_3" depart="588.0" departLane="random" departSpeed="10" />
    <vehicle id="r_1_200" type="standard_car" route="r_1" depart="588.0" departLane="random" departSpeed="10" />
    <vehicle id="r_1_201" type="standard_car" route="r_1" depart="589.0" departLane="random" departSpeed="10" />
    <vehicle id="r_0_202" type="standard_car" route="r_0" depart="590.0" departLane="random" departSpeed="10" />
    <vehicle id="r_1_203" type="standard_car" route="r_1" depart="592.0" departLane="random" departSpeed="10" />
    <vehicle id="r_3_204" type="standard_car" route="r_3" depart="593.0" departLane="random" departSpeed="10" />
    <vehicle id="r_0_205" type="standard_car" route="r_0" depart="595.0" departLane="random" departSpeed="10" />
    <vehicle id="r_3_206" type="standard_car" route="r_3" depart="596.0" departLane="random" departSpeed="10" />
    <vehicle id="r_4_207" type="standard_car" route="r_4" depart="603.0" departLane="random" departSpeed="10" />
    <vehicle id="r_6_208" type="standard_car" route="r_6" depart="606.0" departLane="random" departSpeed="10" />
    <vehicle id="r_0_209" type="standard_car" route="r_0" depart="606.0" departLane="random" departSpeed="10" />
    <vehicle id="r_4_210" type="standard_car" route="r_4" depart="606.0" departLane="random" departSpeed="10" />
    <vehicle id="r_6_211" type="standard_car" route="r_6" depart="606.0" departLane="random" departSpeed="10" />
    <vehicle id="r_3_212" type="standard_car" route="r_3" depart="607.0" departLane="random" departSpeed="10" />
    <vehicle id="r_0_213" type="standard_car" route="r_0" depart="608.0" departLane="random" departSpeed="10" />
    <vehicle id="r_3_214" type="standard_car" route="r_3" depart="609.0" departLane="random" departSpeed="10" />
    <vehicle id="r_1_215" type="standard_car" route="r_1" depart="611.0" departLane="random" departSpeed="10" />
    <vehicle id="r_6_216" type="standard_car" route="r_6" depart="615.0" departLane="random" departSpeed="10" />
    <vehicle id="r_4_217" type="standard_car" route="r_4" depart="616.0" departLane="random" departSpeed="10" />
    <vehicle id="r_3_218" type="standard_car" route="r_3" depart="617.0" departLane="random" departSpeed="10" />
    <vehicle id="r_4_219" type="standard_car" route="r_4" depart="617.0" departLane="random" departSpeed="10" />
    <vehicle id="r_4_220" type="standard_car" route="r_4" depart="619.0" departLane="random" departSpeed="10" />
    <vehicle id="r_0_221" type="standard_car" route="r_0" depart="621.0" departLane="random" departSpeed="10" />
    <vehicle id="r_3_222" type="standard_car" route="r_3" depart="623.0" departLane="random" departSpeed="10" />
    <vehicle id="r_4_223" type="standard_car" route="r_4" depart="623.0" departLane="random" departSpeed="10" />
    <vehicle id="r_0_224" type="standard_car" route="r_0" depart="628.0" departLane="random" departSpeed="10" />
    <vehicle id="r_3_225" type="standard_car" route="r_3" depart="630.0" departLane="random" departSpeed="10" />
    <vehicle id="r_3_226" type="standard_car" route="r_3" depart="631.0" departLane="random" departSpeed="10" />
    <vehicle id="r_3_227" type="standard_car" route="r_3" depart="631.0" departLane="random" departSpeed="10" />
    <vehicle id="r_3_228" type="standard_car" route="r_3" depart="632.0" departLane="random" departSpeed="10" />
    <vehicle id="r_1_229" type="standard_car" route="r_1" depart="632.0" departLane="random" departSpeed="10" />
    <vehicle id="r_3_230" type="standard_car" route="r_3" depart="633.0" departLane="random" departSpeed="10" />
    <vehicle id="r_1_231" type="standard_car" route="r_1" depart="635.0" departLane="random" departSpeed="10" />
    <vehicle id="r_4_232" type="standard_car" route="r_4" depart="637.0" departLane="random" departSpeed="10" />
    <vehicle id="r_5_233" type="standard_car" route="r_5" depart="642.0" departLane="random" departSpeed="10" />
    <vehicle id="r_4_234" type="standard_car" route="r_4" depart="646.0" departLane="random" departSpeed="10" />
    <vehicle id="r_4_235" type="standard_car" route="r_4" depart="648.0" departLane="random" departSpeed="10" />
    <vehicle id="r_0_236" type="standard_car" route="r_0" depart="649.0" departLane="random" departSpeed="10" />
    <vehicle id="r_3_237" type="standard_car" route="r_3" depart="650.0" departLane="random" departSpeed="10" />
    <vehicle id="r_3_238" type="standard_car" route="r_3" depart="651.0" departLane="random" departSpeed="10" />
    <vehicle id="r_0_239" type="standard_car" route="r_0" depart="652.0" departLane="random" departSpeed="10" />
    <vehicle id="r_2_240" type="standard_car" route="r_2" depart="653.0" departLane="random" departSpeed="10" />
    <vehicle id="r_4_241" type="standard_car" route="r_4" depart="655.0" departLane="random" departSpeed="10" />
    <vehicle id="r_4_242" type="standard_car" route="r_4" depart="655.0" departLane="random" departSpeed="10" />
    <vehicle id="r_3_243" type="standard_car" route="r_3" depart="656.0" departLane="random" departSpeed="10" />
    <vehicle id="r_1_244" type="standard_car" route="r_1" depart="656.0" departLane="random" departSpeed="10" />
    <vehicle id="r_1_245" type="standard_car" route="r_1" depart="662.0" departLane="random" departSpeed="10" />
    <vehicle id="r_3_246" type="standard_car" route="r_3" depart="663.0" departLane="random" departSpeed="10" />
    <vehicle id="r_4_247" type="standard_car" route="r_4" depart="664.0" departLane="random" departSpeed="10" />
    <vehicle id="r_3_248" type="standard_car" route="r_3" depart="667.0" departLane="random" departSpeed="10" />
    <vehicle id="r_3_249" type="standard_car" route="r_3" depart="671.0" departLane="random" departSpeed="10" />
    <vehicle id="r_2_250" type="standard_car" route="r_2" depart="679.0" departLane="random" departSpeed="10" />
    <vehicle id="r_3_251" type="standard_car" route="r_3" depart="681.0" departLane="random" departSpeed="10" />
    <vehicle id="r_0_252" type="standard_car" route="r_0" depart="681.0" departLane="random" departSpeed="10" />
    <vehicle id="r_0_253" type="standard_car" route="r_0" depart="682.0" departLane="random" departSpeed="10" />
    <vehicle id="r_4_254" type="standard_car" route="r_4" depart="683.0" departLane="random" departSpeed="10" />
    <vehicle id="r_6_255" type="standard_car" route="r_6" depart="683.0" departLane="random" departSpeed="10" />
    <vehicle id="r_3_256" type="standard_car" route="r_3" depart="686.0" departLane="random" departSpeed="10" />
    <vehicle id="r_4_257" type="standard_car" route="r_4" depart="687.0" departLane="random" departSpeed="10" />
    <vehicle id="r_1_258" type="standard_car" route="r_1" depart="687.0" departLane="random" departSpeed="10" />